
Circuit: *

Doing analysis at TEMP = 27.000000 and TNOM = 27.000000



No. of Data Rows : 1
op_TAB
@gb[i] = -1.85722e-03
@id[current] = 1.003968e-03
@r1[i] = -1.85714e-03
@r2[i] = 1.857222e-03
@r3[i] = -8.11657e-08
@r4[i] = 7.994898e-04
@r5[i] = -2.86119e-03
@r6[i] = -1.05765e-03
@r7[i] = -1.05765e-03
v(1) = -1.88731e+00
v(2) = -5.70404e+00
v(3) = 6.994799e+00
v(4) = -1.87847e+00
v(5) = -2.97765e+00
v(6) = -5.11325e+00
v(7) = -1.88706e+00
v(8) = -5.11325e+00
hc#branch = 2.061619e-03
va#branch = -1.85714e-03
vf#branch = -1.05765e-03
op_END
