
Circuit: *

Doing analysis at TEMP = 27.000000 and TNOM = 27.000000



No. of Data Rows : 1
op_TAB
@gb[i] = -2.57154e-04
@id[current] = 1.003968e-03
@r1[i] = -2.45916e-04
@r2[i] = 2.571543e-04
@r3[i] = -1.12383e-05
@r4[i] = 1.213956e-03
@r5[i] = -1.26112e-03
@r6[i] = 9.680395e-04
@r7[i] = 9.680395e-04
v(1) = -2.49911e-01
v(2) = -7.78383e-01
v(3) = 3.700284e+00
v(4) = -8.07395e+00
v(5) = -7.06789e+00
v(6) = -5.11325e+00
v(7) = -2.14558e-01
v(8) = -5.11325e+00
hc#branch = 3.592851e-05
va#branch = -2.45916e-04
vf#branch = 9.680395e-04
op_END
